examples/data/enwl/lv-network-models/network_15/Feeder_7/Loads.dss
New Load.LOAD1 Phases=1 Bus1=306.3 kV=0.23 kW=1 PF=0.95
New Load.LOAD2 Phases=1 Bus1=307.3 kV=0.23 kW=1 PF=0.95
New Load.LOAD3 Phases=1 Bus1=322.3 kV=0.23 kW=1 PF=0.95
New Load.LOAD4 Phases=1 Bus1=323.3 kV=0.23 kW=1 PF=0.95
New Load.LOAD5 Phases=1 Bus1=324.3 kV=0.23 kW=1 PF=0.95
New Load.LOAD6 Phases=1 Bus1=404.3 kV=0.23 kW=1 PF=0.95
New Load.LOAD7 Phases=1 Bus1=405.3 kV=0.23 kW=1 PF=0.95
New Load.LOAD8 Phases=1 Bus1=423.3 kV=0.23 kW=1 PF=0.95
New Load.LOAD9 Phases=1 Bus1=424.3 kV=0.23 kW=1 PF=0.95
New Load.LOAD10 Phases=1 Bus1=434.1 kV=0.23 kW=1 PF=0.95
New Load.LOAD11 Phases=1 Bus1=435.1 kV=0.23 kW=1 PF=0.95
New Load.LOAD12 Phases=1 Bus1=453.1 kV=0.23 kW=1 PF=0.95
New Load.LOAD13 Phases=1 Bus1=454.1 kV=0.23 kW=1 PF=0.95
New Load.LOAD14 Phases=1 Bus1=488.2 kV=0.23 kW=1 PF=0.95
New Load.LOAD15 Phases=1 Bus1=490.2 kV=0.23 kW=1 PF=0.95
New Load.LOAD16 Phases=1 Bus1=491.2 kV=0.23 kW=1 PF=0.95
New Load.LOAD17 Phases=1 Bus1=497.1 kV=0.23 kW=1 PF=0.95
New Load.LOAD18 Phases=1 Bus1=498.1 kV=0.23 kW=1 PF=0.95
New Load.LOAD19 Phases=1 Bus1=508.2 kV=0.23 kW=1 PF=0.95
New Load.LOAD20 Phases=1 Bus1=509.2 kV=0.23 kW=1 PF=0.95
New Load.LOAD21 Phases=1 Bus1=515.1 kV=0.23 kW=1 PF=0.95
New Load.LOAD22 Phases=1 Bus1=516.1 kV=0.23 kW=1 PF=0.95
New Load.LOAD23 Phases=1 Bus1=565.2 kV=0.23 kW=1 PF=0.95
New Load.LOAD24 Phases=1 Bus1=566.2 kV=0.23 kW=1 PF=0.95
New Load.LOAD25 Phases=1 Bus1=583.2 kV=0.23 kW=1 PF=0.95
New Load.LOAD26 Phases=1 Bus1=584.2 kV=0.23 kW=1 PF=0.95
New Load.LOAD27 Phases=1 Bus1=586.3 kV=0.23 kW=1 PF=0.95
New Load.LOAD28 Phases=1 Bus1=677.2 kV=0.23 kW=1 PF=0.95
New Load.LOAD29 Phases=1 Bus1=727.2 kV=0.23 kW=1 PF=0.95
New Load.LOAD30 Phases=1 Bus1=839.2 kV=0.23 kW=1 PF=0.95
New Load.LOAD31 Phases=1 Bus1=885.3 kV=0.23 kW=1 PF=0.95
New Load.LOAD32 Phases=1 Bus1=920.3 kV=0.23 kW=1 PF=0.95
New Load.LOAD33 Phases=1 Bus1=936.3 kV=0.23 kW=1 PF=0.95
New Load.LOAD34 Phases=1 Bus1=950.1 kV=0.23 kW=1 PF=0.95
New Load.LOAD35 Phases=1 Bus1=956.1 kV=0.23 kW=1 PF=0.95
New Load.LOAD36 Phases=1 Bus1=975.3 kV=0.23 kW=1 PF=0.95
New Load.LOAD37 Phases=1 Bus1=979.1 kV=0.23 kW=1 PF=0.95
New Load.LOAD38 Phases=1 Bus1=987.2 kV=0.23 kW=1 PF=0.95
New Load.LOAD39 Phases=1 Bus1=995.1 kV=0.23 kW=1 PF=0.95
New Load.LOAD40 Phases=1 Bus1=1056.3 kV=0.23 kW=1 PF=0.95
New Load.LOAD41 Phases=1 Bus1=1097.1 kV=0.23 kW=1 PF=0.95
New Load.LOAD42 Phases=1 Bus1=1115.3 kV=0.23 kW=1 PF=0.95
New Load.LOAD43 Phases=1 Bus1=1119.3 kV=0.23 kW=1 PF=0.95
New Load.LOAD44 Phases=1 Bus1=1139.1 kV=0.23 kW=1 PF=0.95
New Load.LOAD45 Phases=1 Bus1=1140.1 kV=0.23 kW=1 PF=0.95
New Load.LOAD46 Phases=1 Bus1=1141.3 kV=0.23 kW=1 PF=0.95
New Load.LOAD47 Phases=1 Bus1=1143.1 kV=0.23 kW=1 PF=0.95
New Load.LOAD48 Phases=1 Bus1=1161.1 kV=0.23 kW=1 PF=0.95
New Load.LOAD49 Phases=1 Bus1=1165.1 kV=0.23 kW=1 PF=0.95
New Load.LOAD50 Phases=1 Bus1=1174.3 kV=0.23 kW=1 PF=0.95
New Load.LOAD51 Phases=1 Bus1=1177.1 kV=0.23 kW=1 PF=0.95
New Load.LOAD52 Phases=1 Bus1=1225.1 kV=0.23 kW=1 PF=0.95
New Load.LOAD53 Phases=1 Bus1=1229.3 kV=0.23 kW=1 PF=0.95
New Load.LOAD54 Phases=1 Bus1=1236.1 kV=0.23 kW=1 PF=0.95